/*--------------------------------*- C++ -*----------------------------------*\
  =========                 |
  \\      /  F ield         | OpenFOAM: The Open Source CFD Toolbox
   \\    /   O peration     | Website:  https://openfoam.org
    \\  /    A nd           | Version:  13
     \\/     M anipulation  |
\*---------------------------------------------------------------------------*/
FoamFile
{
    format      ascii;
    class       polyBoundaryMesh;
    location    "constant/polyMesh";
    object      boundary;
}
// * * * * * * * * * * * * * * * * * * * * * * * * * * * * * * * * * * * * * //

3
(
    inlet
    {
        type            patch;
        nFaces          49;
        startFace       3675;
    }
    outlet
    {
        type            patch;
        nFaces          49;
        startFace       3724;
    }
    Walls
    {
        type            wall;
        inGroups        List<word> 1(wall);
        nFaces          784;
        startFace       3773;
    }
)

// ************************************************************************* //
