/*--------------------------------*- C++ -*----------------------------------*\
  =========                 |
  \\      /  F ield         | OpenFOAM: The Open Source CFD Toolbox
   \\    /   O peration     | Website:  https://openfoam.org
    \\  /    A nd           | Version:  13
     \\/     M anipulation  |
\*---------------------------------------------------------------------------*/
FoamFile
{
    format      ascii;
    class       polyBoundaryMesh;
    location    "constant/polyMesh";
    object      boundary;
}
// * * * * * * * * * * * * * * * * * * * * * * * * * * * * * * * * * * * * * //

3
(
    inlet
    {
        type            patch;
        nFaces          196;
        startFace       28364;
    }
    outlet
    {
        type            patch;
        nFaces          196;
        startFace       28560;
    }
    Walls
    {
        type            wall;
        inGroups        List<word> 1(wall);
        nFaces          2856;
        startFace       28756;
    }
)

// ************************************************************************* //
